LAMMPS (23 Jun 2022 - Update 4)
# 3d vashishta

units		metal
atom_style	atomic

boundary        p p p

lattice		custom 1              a1 5.5392  0. 0.              a2 0.0 5.5392  0.0            a3 0.0 0.0 5.5392             basis 0.   0.   0.            basis 0.5  0.5  0.            basis 0.5  0.   0.5            basis 0.   0.5  0.5            basis 0.5  0.   0.             basis 0.   0.5  0.             basis 0.   0.   0.5             basis 0.5  0.5  0.5
Lattice spacing in x,y,z = 5.5392 5.5392 5.5392

region		caixa block 0 20 0 20 0 20
create_box	2 caixa
Created orthogonal box = (0 0 0) to (110.784 110.784 110.784)
create_atoms	1 region caixa basis 1 1 basis 2 1 basis 3 1 basis 4 1             	  basis 5 2 basis 6 2 basis 7 2 basis 8 2
Created 64000 atoms

mass		1 137.33
mass		2 15.9994

#velocity	all create 2100. 473204 dist gaussian
velocity        all create 1700. 473204 dist gaussian

group		Ba type 1
32000 atoms in group Ba
group		O type 2
32000 atoms in group O

pair_style	table linear 50000
pair_coeff	1 1 Pot_BaO Vash_11
pair_coeff	1 2 Pot_BaO Vash_12
pair_coeff	2 2 Pot_BaO Vash_22

timestep	0.001   #1.0 fs

thermo		500         # intervalo para mostrar output instantaneos.

neighbor	2.0 bin
neigh_modify	every 8 delay 0 check yes

restart		1000 BaO-nvt.T2100

#fix		ensemble all nve
#fix		ensemble all nvt temp 300 300 0.1 iso 0.0 0.0 0.5 drag 2.0

#fix    ensemble all nvt temp 2100 2100 0.1

#fix    ensemble all nvt temp 3500 3500 0.05

# mudanca no ensemble NPT
fix ensemble all npt temp 1700.0 1700.0 1.0 iso 0.0 0.0 1000.0

run		2000000
Generated 0 of 1 mixed pair_coeff terms from geometric mixing rule
  update every 8 steps, delay 0 steps, check yes
Step          Temp          E_pair         E_mol          TotEng         Press          Volume
0   1700          -243821.04      0             -229757.75      10735.244      1359662.5
Averages over the last 2001 of 4001 rows, steps 1000000 to 2000000:
Temp E_pair E_mol TotEng Press Volume
1699.8 -226908 0 -212847 3886.41 1.65666e+06
Loop time of 76502.4 on 10 procs for 2000000 steps with 64000 atoms
