LAMMPS (23 Jun 2022 - Update 4)
# 3d vashishta

units		metal
atom_style	atomic

boundary        p p p

lattice		custom 1              a1 5.5392  0. 0.              a2 0.0 5.5392  0.0            a3 0.0 0.0 5.5392             basis 0.   0.   0.            basis 0.5  0.5  0.            basis 0.5  0.   0.5            basis 0.   0.5  0.5            basis 0.5  0.   0.             basis 0.   0.5  0.             basis 0.   0.   0.5             basis 0.5  0.5  0.5
Lattice spacing in x,y,z = 5.5392 5.5392 5.5392

region		caixa block 0 10 0 10 0 10
create_box	2 caixa
Created orthogonal box = (0 0 0) to (55.392 55.392 55.392)
create_atoms	1 region caixa basis 1 1 basis 2 1 basis 3 1 basis 4 1             	  basis 5 2 basis 6 2 basis 7 2 basis 8 2
Created 8000 atoms

mass		1 137.33
mass		2 15.9994

#velocity	all create 2100. 473204 dist gaussian
velocity        all create 1300. 473204 dist gaussian

group		Ba type 1
4000 atoms in group Ba
group		O type 2
4000 atoms in group O

pair_style	table linear 50000
pair_coeff	1 1 Pot_BaO Vash_11
pair_coeff	1 2 Pot_BaO Vash_12
pair_coeff	2 2 Pot_BaO Vash_22

timestep	0.001   #1.0 fs

thermo		500         # intervalo para mostrar output instantaneos.

neighbor	2.0 bin
neigh_modify	every 8 delay 0 check yes

restart		1000 BaO-nvt.T2100

#fix		ensemble all nve
#fix		ensemble all nvt temp 300 300 0.1 iso 0.0 0.0 0.5 drag 2.0
#fix    ensemble all nvt temp 2100 2100 0.1

fix    ensemble all nvt temp 1300 1300 0.05

run		2000000
Generated 0 of 1 mixed pair_coeff terms from geometric mixing rule
  update every 8 steps, delay 0 steps, check yes
Step          Temp          E_pair         E_mol          TotEng         Press
0   1300          -30477.63       0             -29133.492      8134.8444
Averages over the last 2001 of 4001 rows, steps 1000000 to 2000000:
Temp E_pair E_mol TotEng Press
1300.31 -29246.2 0 -27901.7 55575
Loop time of 5721.48 on 10 procs for 2000000 steps with 8000 atoms
